  24

 C         -3.2668063145       -1.0612383311        0.0019792586
 N         -2.2766003898       -0.0195172936       -0.0013208218
 C         -0.9134590858       -0.2019878522        0.0036747135
 C         -0.3724701006        1.0762202467        0.0017569102
 N         -1.3526586265        2.0066755645       -0.0051933750
 C         -2.4700895686        1.3111433173       -0.0065911261
 H         -3.4434528448        1.7598589152       -0.0115392456
 N          0.9701620055        1.2833365802       -0.0008793828
 C          1.8257144377        0.2028321683       -0.0007168653
 O          3.0278876281        0.3474912012       -0.0051812078
 N          1.2515027114       -1.0636950051       -0.0008922263
 C         -0.1065018202       -1.3842039491        0.0029991689
 O         -0.5015980556       -2.5366534217        0.0044099955
 C          2.2018357820       -2.1638123093       -0.0037185988
 H          1.6323675079       -3.0900622488        0.0097444448
 H          2.8244315108       -2.1119787186       -0.8964193499
 H          2.8450781508       -2.0977859157        0.8731480371
 C          1.5216365707        2.6211569486        0.0093869454
 H          0.7306184352        3.3088549484       -0.2771144995
 H          1.8886888508        2.8714188674        1.0060887389
 H          2.3551115434        2.6687817985       -0.6902763920
 H         -2.7510404767       -2.0202634640       -0.0176576390
 H         -3.9109098848       -0.9753935259       -0.8744768432
 H         -3.8816811438       -0.9984445054        0.9013764258
